FoamFile
{
    version     2.0;
    format      ascii;
    class       dictionary;
    object      blockMeshDict;
}

convertToMeters 1;

vertices
(
    (0.0000 0.0000 0.0000)
    (0.0000 1.3762 0.0000)
    (1.5000 0.0000 0.0000)
    (1.5000 0.5642 0.0000)
    (2.2500 0.0000 0.0000)
    (2.2500 0.8439 0.0000)
    (0.0000 0.0000 0.0500)
    (0.0000 1.3762 0.0500)
    (1.5000 0.0000 0.0500)
    (1.5000 0.5642 0.0500)
    (2.2500 0.0000 0.0500)
    (2.2500 0.8439 0.0500)
);

blocks
(
    hex (0 2 3 1 6 8 9 7) (300 100 1) simpleGrading (2 1 1)
    hex (2 4 5 3 8 10 11 9) (200 100 1) simpleGrading (1 1 1)
);

edges
(
    spline 1 3
    (
        (0.0000 1.3762 0.0000)
        (0.0050 1.3724 0.0000)
        (0.0100 1.3686 0.0000)
        (0.0151 1.3647 0.0000)
        (0.0201 1.3609 0.0000)
        (0.0251 1.3571 0.0000)
        (0.0301 1.3533 0.0000)
        (0.0351 1.3495 0.0000)
        (0.0401 1.3456 0.0000)
        (0.0452 1.3418 0.0000)
        (0.0502 1.3380 0.0000)
        (0.0552 1.3342 0.0000)
        (0.0602 1.3304 0.0000)
        (0.0652 1.3266 0.0000)
        (0.0702 1.3228 0.0000)
        (0.0753 1.3190 0.0000)
        (0.0803 1.3152 0.0000)
        (0.0853 1.3114 0.0000)
        (0.0903 1.3076 0.0000)
        (0.0953 1.3039 0.0000)
        (0.1003 1.3001 0.0000)
        (0.1054 1.2963 0.0000)
        (0.1104 1.2925 0.0000)
        (0.1154 1.2887 0.0000)
        (0.1204 1.2850 0.0000)
        (0.1254 1.2812 0.0000)
        (0.1304 1.2774 0.0000)
        (0.1355 1.2737 0.0000)
        (0.1405 1.2699 0.0000)
        (0.1455 1.2661 0.0000)
        (0.1505 1.2624 0.0000)
        (0.1555 1.2586 0.0000)
        (0.1605 1.2549 0.0000)
        (0.1656 1.2511 0.0000)
        (0.1706 1.2474 0.0000)
        (0.1756 1.2436 0.0000)
        (0.1806 1.2399 0.0000)
        (0.1856 1.2362 0.0000)
        (0.1906 1.2324 0.0000)
        (0.1957 1.2287 0.0000)
        (0.2007 1.2250 0.0000)
        (0.2057 1.2213 0.0000)
        (0.2107 1.2175 0.0000)
        (0.2157 1.2138 0.0000)
        (0.2207 1.2101 0.0000)
        (0.2258 1.2064 0.0000)
        (0.2308 1.2027 0.0000)
        (0.2358 1.1990 0.0000)
        (0.2408 1.1953 0.0000)
        (0.2458 1.1916 0.0000)
        (0.2508 1.1879 0.0000)
        (0.2559 1.1842 0.0000)
        (0.2609 1.1805 0.0000)
        (0.2659 1.1768 0.0000)
        (0.2709 1.1731 0.0000)
        (0.2759 1.1694 0.0000)
        (0.2809 1.1658 0.0000)
        (0.2860 1.1621 0.0000)
        (0.2910 1.1584 0.0000)
        (0.2960 1.1548 0.0000)
        (0.3010 1.1511 0.0000)
        (0.3060 1.1474 0.0000)
        (0.3110 1.1438 0.0000)
        (0.3161 1.1401 0.0000)
        (0.3211 1.1365 0.0000)
        (0.3261 1.1328 0.0000)
        (0.3311 1.1292 0.0000)
        (0.3361 1.1256 0.0000)
        (0.3411 1.1219 0.0000)
        (0.3462 1.1183 0.0000)
        (0.3512 1.1147 0.0000)
        (0.3562 1.1111 0.0000)
        (0.3612 1.1075 0.0000)
        (0.3662 1.1039 0.0000)
        (0.3712 1.1002 0.0000)
        (0.3763 1.0966 0.0000)
        (0.3813 1.0930 0.0000)
        (0.3863 1.0895 0.0000)
        (0.3913 1.0859 0.0000)
        (0.3963 1.0823 0.0000)
        (0.4013 1.0787 0.0000)
        (0.4064 1.0751 0.0000)
        (0.4114 1.0716 0.0000)
        (0.4164 1.0680 0.0000)
        (0.4214 1.0644 0.0000)
        (0.4264 1.0609 0.0000)
        (0.4314 1.0573 0.0000)
        (0.4365 1.0538 0.0000)
        (0.4415 1.0502 0.0000)
        (0.4465 1.0467 0.0000)
        (0.4515 1.0431 0.0000)
        (0.4565 1.0396 0.0000)
        (0.4615 1.0361 0.0000)
        (0.4666 1.0326 0.0000)
        (0.4716 1.0291 0.0000)
        (0.4766 1.0256 0.0000)
        (0.4816 1.0221 0.0000)
        (0.4866 1.0186 0.0000)
        (0.4916 1.0151 0.0000)
        (0.4967 1.0116 0.0000)
        (0.5017 1.0081 0.0000)
        (0.5067 1.0046 0.0000)
        (0.5117 1.0011 0.0000)
        (0.5167 0.9977 0.0000)
        (0.5217 0.9942 0.0000)
        (0.5268 0.9908 0.0000)
        (0.5318 0.9873 0.0000)
        (0.5368 0.9839 0.0000)
        (0.5418 0.9804 0.0000)
        (0.5468 0.9770 0.0000)
        (0.5518 0.9736 0.0000)
        (0.5569 0.9702 0.0000)
        (0.5619 0.9668 0.0000)
        (0.5669 0.9633 0.0000)
        (0.5719 0.9599 0.0000)
        (0.5769 0.9566 0.0000)
        (0.5819 0.9532 0.0000)
        (0.5870 0.9498 0.0000)
        (0.5920 0.9464 0.0000)
        (0.5970 0.9430 0.0000)
        (0.6020 0.9397 0.0000)
        (0.6070 0.9363 0.0000)
        (0.6120 0.9330 0.0000)
        (0.6171 0.9296 0.0000)
        (0.6221 0.9263 0.0000)
        (0.6271 0.9230 0.0000)
        (0.6321 0.9197 0.0000)
        (0.6371 0.9164 0.0000)
        (0.6421 0.9131 0.0000)
        (0.6472 0.9098 0.0000)
        (0.6522 0.9065 0.0000)
        (0.6572 0.9032 0.0000)
        (0.6622 0.8999 0.0000)
        (0.6672 0.8966 0.0000)
        (0.6722 0.8934 0.0000)
        (0.6773 0.8901 0.0000)
        (0.6823 0.8869 0.0000)
        (0.6873 0.8837 0.0000)
        (0.6923 0.8804 0.0000)
        (0.6973 0.8772 0.0000)
        (0.7023 0.8740 0.0000)
        (0.7074 0.8708 0.0000)
        (0.7124 0.8676 0.0000)
        (0.7174 0.8644 0.0000)
        (0.7224 0.8612 0.0000)
        (0.7274 0.8581 0.0000)
        (0.7324 0.8549 0.0000)
        (0.7375 0.8518 0.0000)
        (0.7425 0.8486 0.0000)
        (0.7475 0.8455 0.0000)
        (0.7525 0.8424 0.0000)
        (0.7575 0.8393 0.0000)
        (0.7625 0.8362 0.0000)
        (0.7676 0.8331 0.0000)
        (0.7726 0.8300 0.0000)
        (0.7776 0.8269 0.0000)
        (0.7826 0.8238 0.0000)
        (0.7876 0.8208 0.0000)
        (0.7926 0.8177 0.0000)
        (0.7977 0.8147 0.0000)
        (0.8027 0.8117 0.0000)
        (0.8077 0.8087 0.0000)
        (0.8127 0.8057 0.0000)
        (0.8177 0.8027 0.0000)
        (0.8227 0.7997 0.0000)
        (0.8278 0.7967 0.0000)
        (0.8328 0.7938 0.0000)
        (0.8378 0.7908 0.0000)
        (0.8428 0.7879 0.0000)
        (0.8478 0.7850 0.0000)
        (0.8528 0.7820 0.0000)
        (0.8579 0.7791 0.0000)
        (0.8629 0.7763 0.0000)
        (0.8679 0.7734 0.0000)
        (0.8729 0.7705 0.0000)
        (0.8779 0.7677 0.0000)
        (0.8829 0.7648 0.0000)
        (0.8880 0.7620 0.0000)
        (0.8930 0.7592 0.0000)
        (0.8980 0.7564 0.0000)
        (0.9030 0.7536 0.0000)
        (0.9080 0.7508 0.0000)
        (0.9130 0.7480 0.0000)
        (0.9181 0.7453 0.0000)
        (0.9231 0.7426 0.0000)
        (0.9281 0.7398 0.0000)
        (0.9331 0.7371 0.0000)
        (0.9381 0.7344 0.0000)
        (0.9431 0.7318 0.0000)
        (0.9482 0.7291 0.0000)
        (0.9532 0.7264 0.0000)
        (0.9582 0.7238 0.0000)
        (0.9632 0.7212 0.0000)
        (0.9682 0.7186 0.0000)
        (0.9732 0.7160 0.0000)
        (0.9783 0.7134 0.0000)
        (0.9833 0.7108 0.0000)
        (0.9883 0.7083 0.0000)
        (0.9933 0.7058 0.0000)
        (0.9983 0.7032 0.0000)
        (1.0033 0.7007 0.0000)
        (1.0084 0.6983 0.0000)
        (1.0134 0.6958 0.0000)
        (1.0184 0.6934 0.0000)
        (1.0234 0.6909 0.0000)
        (1.0284 0.6885 0.0000)
        (1.0334 0.6861 0.0000)
        (1.0385 0.6837 0.0000)
        (1.0435 0.6814 0.0000)
        (1.0485 0.6790 0.0000)
        (1.0535 0.6767 0.0000)
        (1.0585 0.6744 0.0000)
        (1.0635 0.6721 0.0000)
        (1.0686 0.6698 0.0000)
        (1.0736 0.6676 0.0000)
        (1.0786 0.6653 0.0000)
        (1.0836 0.6631 0.0000)
        (1.0886 0.6609 0.0000)
        (1.0936 0.6587 0.0000)
        (1.0987 0.6566 0.0000)
        (1.1037 0.6544 0.0000)
        (1.1087 0.6523 0.0000)
        (1.1137 0.6502 0.0000)
        (1.1187 0.6482 0.0000)
        (1.1237 0.6461 0.0000)
        (1.1288 0.6441 0.0000)
        (1.1338 0.6421 0.0000)
        (1.1388 0.6401 0.0000)
        (1.1438 0.6381 0.0000)
        (1.1488 0.6361 0.0000)
        (1.1538 0.6342 0.0000)
        (1.1589 0.6323 0.0000)
        (1.1639 0.6304 0.0000)
        (1.1689 0.6286 0.0000)
        (1.1739 0.6267 0.0000)
        (1.1789 0.6249 0.0000)
        (1.1839 0.6231 0.0000)
        (1.1890 0.6213 0.0000)
        (1.1940 0.6196 0.0000)
        (1.1990 0.6179 0.0000)
        (1.2040 0.6162 0.0000)
        (1.2090 0.6145 0.0000)
        (1.2140 0.6128 0.0000)
        (1.2191 0.6112 0.0000)
        (1.2241 0.6096 0.0000)
        (1.2291 0.6080 0.0000)
        (1.2341 0.6065 0.0000)
        (1.2391 0.6050 0.0000)
        (1.2441 0.6034 0.0000)
        (1.2492 0.6020 0.0000)
        (1.2542 0.6005 0.0000)
        (1.2592 0.5991 0.0000)
        (1.2642 0.5977 0.0000)
        (1.2692 0.5963 0.0000)
        (1.2742 0.5950 0.0000)
        (1.2793 0.5937 0.0000)
        (1.2843 0.5924 0.0000)
        (1.2893 0.5911 0.0000)
        (1.2943 0.5899 0.0000)
        (1.2993 0.5887 0.0000)
        (1.3043 0.5875 0.0000)
        (1.3094 0.5863 0.0000)
        (1.3144 0.5852 0.0000)
        (1.3194 0.5841 0.0000)
        (1.3244 0.5830 0.0000)
        (1.3294 0.5820 0.0000)
        (1.3344 0.5809 0.0000)
        (1.3395 0.5800 0.0000)
        (1.3445 0.5790 0.0000)
        (1.3495 0.5781 0.0000)
        (1.3545 0.5772 0.0000)
        (1.3595 0.5763 0.0000)
        (1.3645 0.5755 0.0000)
        (1.3696 0.5747 0.0000)
        (1.3746 0.5739 0.0000)
        (1.3796 0.5731 0.0000)
        (1.3846 0.5724 0.0000)
        (1.3896 0.5717 0.0000)
        (1.3946 0.5710 0.0000)
        (1.3997 0.5704 0.0000)
        (1.4047 0.5698 0.0000)
        (1.4097 0.5692 0.0000)
        (1.4147 0.5687 0.0000)
        (1.4197 0.5682 0.0000)
        (1.4247 0.5677 0.0000)
        (1.4298 0.5672 0.0000)
        (1.4348 0.5668 0.0000)
        (1.4398 0.5664 0.0000)
        (1.4448 0.5661 0.0000)
        (1.4498 0.5657 0.0000)
        (1.4548 0.5655 0.0000)
        (1.4599 0.5652 0.0000)
        (1.4649 0.5650 0.0000)
        (1.4699 0.5648 0.0000)
        (1.4749 0.5646 0.0000)
        (1.4799 0.5644 0.0000)
        (1.4849 0.5643 0.0000)
        (1.4900 0.5643 0.0000)
        (1.4950 0.5642 0.0000)
        (1.5000 0.5642 0.0000)
    )
    spline 3 5
    (
        (1.5038 0.5642 0.0000)
        (1.5075 0.5642 0.0000)
        (1.5113 0.5643 0.0000)
        (1.5151 0.5643 0.0000)
        (1.5188 0.5644 0.0000)
        (1.5226 0.5645 0.0000)
        (1.5264 0.5646 0.0000)
        (1.5302 0.5648 0.0000)
        (1.5339 0.5649 0.0000)
        (1.5377 0.5651 0.0000)
        (1.5415 0.5653 0.0000)
        (1.5452 0.5655 0.0000)
        (1.5490 0.5657 0.0000)
        (1.5528 0.5659 0.0000)
        (1.5565 0.5662 0.0000)
        (1.5603 0.5664 0.0000)
        (1.5641 0.5667 0.0000)
        (1.5678 0.5670 0.0000)
        (1.5716 0.5674 0.0000)
        (1.5754 0.5677 0.0000)
        (1.5791 0.5681 0.0000)
        (1.5829 0.5684 0.0000)
        (1.5867 0.5688 0.0000)
        (1.5905 0.5692 0.0000)
        (1.5942 0.5697 0.0000)
        (1.5980 0.5701 0.0000)
        (1.6018 0.5706 0.0000)
        (1.6055 0.5711 0.0000)
        (1.6093 0.5716 0.0000)
        (1.6131 0.5721 0.0000)
        (1.6168 0.5726 0.0000)
        (1.6206 0.5731 0.0000)
        (1.6244 0.5737 0.0000)
        (1.6281 0.5743 0.0000)
        (1.6319 0.5749 0.0000)
        (1.6357 0.5755 0.0000)
        (1.6394 0.5761 0.0000)
        (1.6432 0.5768 0.0000)
        (1.6470 0.5774 0.0000)
        (1.6508 0.5781 0.0000)
        (1.6545 0.5788 0.0000)
        (1.6583 0.5795 0.0000)
        (1.6621 0.5803 0.0000)
        (1.6658 0.5810 0.0000)
        (1.6696 0.5818 0.0000)
        (1.6734 0.5825 0.0000)
        (1.6771 0.5833 0.0000)
        (1.6809 0.5841 0.0000)
        (1.6847 0.5850 0.0000)
        (1.6884 0.5858 0.0000)
        (1.6922 0.5867 0.0000)
        (1.6960 0.5875 0.0000)
        (1.6997 0.5884 0.0000)
        (1.7035 0.5893 0.0000)
        (1.7073 0.5903 0.0000)
        (1.7111 0.5912 0.0000)
        (1.7148 0.5921 0.0000)
        (1.7186 0.5931 0.0000)
        (1.7224 0.5941 0.0000)
        (1.7261 0.5951 0.0000)
        (1.7299 0.5961 0.0000)
        (1.7337 0.5971 0.0000)
        (1.7374 0.5982 0.0000)
        (1.7412 0.5992 0.0000)
        (1.7450 0.6003 0.0000)
        (1.7487 0.6014 0.0000)
        (1.7525 0.6025 0.0000)
        (1.7563 0.6036 0.0000)
        (1.7601 0.6047 0.0000)
        (1.7638 0.6058 0.0000)
        (1.7676 0.6070 0.0000)
        (1.7714 0.6082 0.0000)
        (1.7751 0.6094 0.0000)
        (1.7789 0.6106 0.0000)
        (1.7827 0.6118 0.0000)
        (1.7864 0.6130 0.0000)
        (1.7902 0.6142 0.0000)
        (1.7940 0.6155 0.0000)
        (1.7977 0.6168 0.0000)
        (1.8015 0.6180 0.0000)
        (1.8053 0.6193 0.0000)
        (1.8090 0.6206 0.0000)
        (1.8128 0.6220 0.0000)
        (1.8166 0.6233 0.0000)
        (1.8204 0.6246 0.0000)
        (1.8241 0.6260 0.0000)
        (1.8279 0.6274 0.0000)
        (1.8317 0.6288 0.0000)
        (1.8354 0.6302 0.0000)
        (1.8392 0.6316 0.0000)
        (1.8430 0.6330 0.0000)
        (1.8467 0.6344 0.0000)
        (1.8505 0.6359 0.0000)
        (1.8543 0.6373 0.0000)
        (1.8580 0.6388 0.0000)
        (1.8618 0.6403 0.0000)
        (1.8656 0.6418 0.0000)
        (1.8693 0.6433 0.0000)
        (1.8731 0.6448 0.0000)
        (1.8769 0.6464 0.0000)
        (1.8807 0.6479 0.0000)
        (1.8844 0.6495 0.0000)
        (1.8882 0.6510 0.0000)
        (1.8920 0.6526 0.0000)
        (1.8957 0.6542 0.0000)
        (1.8995 0.6558 0.0000)
        (1.9033 0.6574 0.0000)
        (1.9070 0.6590 0.0000)
        (1.9108 0.6607 0.0000)
        (1.9146 0.6623 0.0000)
        (1.9183 0.6640 0.0000)
        (1.9221 0.6656 0.0000)
        (1.9259 0.6673 0.0000)
        (1.9296 0.6690 0.0000)
        (1.9334 0.6707 0.0000)
        (1.9372 0.6724 0.0000)
        (1.9410 0.6741 0.0000)
        (1.9447 0.6759 0.0000)
        (1.9485 0.6776 0.0000)
        (1.9523 0.6794 0.0000)
        (1.9560 0.6811 0.0000)
        (1.9598 0.6829 0.0000)
        (1.9636 0.6847 0.0000)
        (1.9673 0.6865 0.0000)
        (1.9711 0.6883 0.0000)
        (1.9749 0.6901 0.0000)
        (1.9786 0.6919 0.0000)
        (1.9824 0.6937 0.0000)
        (1.9862 0.6956 0.0000)
        (1.9899 0.6974 0.0000)
        (1.9937 0.6993 0.0000)
        (1.9975 0.7012 0.0000)
        (2.0013 0.7030 0.0000)
        (2.0050 0.7049 0.0000)
        (2.0088 0.7068 0.0000)
        (2.0126 0.7087 0.0000)
        (2.0163 0.7106 0.0000)
        (2.0201 0.7126 0.0000)
        (2.0239 0.7145 0.0000)
        (2.0276 0.7164 0.0000)
        (2.0314 0.7184 0.0000)
        (2.0352 0.7203 0.0000)
        (2.0389 0.7223 0.0000)
        (2.0427 0.7243 0.0000)
        (2.0465 0.7263 0.0000)
        (2.0503 0.7282 0.0000)
        (2.0540 0.7302 0.0000)
        (2.0578 0.7322 0.0000)
        (2.0616 0.7343 0.0000)
        (2.0653 0.7363 0.0000)
        (2.0691 0.7383 0.0000)
        (2.0729 0.7404 0.0000)
        (2.0766 0.7424 0.0000)
        (2.0804 0.7445 0.0000)
        (2.0842 0.7465 0.0000)
        (2.0879 0.7486 0.0000)
        (2.0917 0.7507 0.0000)
        (2.0955 0.7527 0.0000)
        (2.0992 0.7548 0.0000)
        (2.1030 0.7569 0.0000)
        (2.1068 0.7590 0.0000)
        (2.1106 0.7612 0.0000)
        (2.1143 0.7633 0.0000)
        (2.1181 0.7654 0.0000)
        (2.1219 0.7675 0.0000)
        (2.1256 0.7697 0.0000)
        (2.1294 0.7718 0.0000)
        (2.1332 0.7740 0.0000)
        (2.1369 0.7761 0.0000)
        (2.1407 0.7783 0.0000)
        (2.1445 0.7805 0.0000)
        (2.1482 0.7827 0.0000)
        (2.1520 0.7849 0.0000)
        (2.1558 0.7871 0.0000)
        (2.1595 0.7893 0.0000)
        (2.1633 0.7915 0.0000)
        (2.1671 0.7937 0.0000)
        (2.1709 0.7959 0.0000)
        (2.1746 0.7981 0.0000)
        (2.1784 0.8004 0.0000)
        (2.1822 0.8026 0.0000)
        (2.1859 0.8049 0.0000)
        (2.1897 0.8071 0.0000)
        (2.1935 0.8094 0.0000)
        (2.1972 0.8116 0.0000)
        (2.2010 0.8139 0.0000)
        (2.2048 0.8162 0.0000)
        (2.2085 0.8185 0.0000)
        (2.2123 0.8207 0.0000)
        (2.2161 0.8230 0.0000)
        (2.2198 0.8253 0.0000)
        (2.2236 0.8276 0.0000)
        (2.2274 0.8300 0.0000)
        (2.2312 0.8323 0.0000)
        (2.2349 0.8346 0.0000)
        (2.2387 0.8369 0.0000)
        (2.2425 0.8392 0.0000)
        (2.2462 0.8416 0.0000)
        (2.2500 0.8439 0.0000)
    )
    spline 7 9
    (
        (0.0000 1.3762 0.0500)
        (0.0050 1.3724 0.0500)
        (0.0100 1.3686 0.0500)
        (0.0151 1.3647 0.0500)
        (0.0201 1.3609 0.0500)
        (0.0251 1.3571 0.0500)
        (0.0301 1.3533 0.0500)
        (0.0351 1.3495 0.0500)
        (0.0401 1.3456 0.0500)
        (0.0452 1.3418 0.0500)
        (0.0502 1.3380 0.0500)
        (0.0552 1.3342 0.0500)
        (0.0602 1.3304 0.0500)
        (0.0652 1.3266 0.0500)
        (0.0702 1.3228 0.0500)
        (0.0753 1.3190 0.0500)
        (0.0803 1.3152 0.0500)
        (0.0853 1.3114 0.0500)
        (0.0903 1.3076 0.0500)
        (0.0953 1.3039 0.0500)
        (0.1003 1.3001 0.0500)
        (0.1054 1.2963 0.0500)
        (0.1104 1.2925 0.0500)
        (0.1154 1.2887 0.0500)
        (0.1204 1.2850 0.0500)
        (0.1254 1.2812 0.0500)
        (0.1304 1.2774 0.0500)
        (0.1355 1.2737 0.0500)
        (0.1405 1.2699 0.0500)
        (0.1455 1.2661 0.0500)
        (0.1505 1.2624 0.0500)
        (0.1555 1.2586 0.0500)
        (0.1605 1.2549 0.0500)
        (0.1656 1.2511 0.0500)
        (0.1706 1.2474 0.0500)
        (0.1756 1.2436 0.0500)
        (0.1806 1.2399 0.0500)
        (0.1856 1.2362 0.0500)
        (0.1906 1.2324 0.0500)
        (0.1957 1.2287 0.0500)
        (0.2007 1.2250 0.0500)
        (0.2057 1.2213 0.0500)
        (0.2107 1.2175 0.0500)
        (0.2157 1.2138 0.0500)
        (0.2207 1.2101 0.0500)
        (0.2258 1.2064 0.0500)
        (0.2308 1.2027 0.0500)
        (0.2358 1.1990 0.0500)
        (0.2408 1.1953 0.0500)
        (0.2458 1.1916 0.0500)
        (0.2508 1.1879 0.0500)
        (0.2559 1.1842 0.0500)
        (0.2609 1.1805 0.0500)
        (0.2659 1.1768 0.0500)
        (0.2709 1.1731 0.0500)
        (0.2759 1.1694 0.0500)
        (0.2809 1.1658 0.0500)
        (0.2860 1.1621 0.0500)
        (0.2910 1.1584 0.0500)
        (0.2960 1.1548 0.0500)
        (0.3010 1.1511 0.0500)
        (0.3060 1.1474 0.0500)
        (0.3110 1.1438 0.0500)
        (0.3161 1.1401 0.0500)
        (0.3211 1.1365 0.0500)
        (0.3261 1.1328 0.0500)
        (0.3311 1.1292 0.0500)
        (0.3361 1.1256 0.0500)
        (0.3411 1.1219 0.0500)
        (0.3462 1.1183 0.0500)
        (0.3512 1.1147 0.0500)
        (0.3562 1.1111 0.0500)
        (0.3612 1.1075 0.0500)
        (0.3662 1.1039 0.0500)
        (0.3712 1.1002 0.0500)
        (0.3763 1.0966 0.0500)
        (0.3813 1.0930 0.0500)
        (0.3863 1.0895 0.0500)
        (0.3913 1.0859 0.0500)
        (0.3963 1.0823 0.0500)
        (0.4013 1.0787 0.0500)
        (0.4064 1.0751 0.0500)
        (0.4114 1.0716 0.0500)
        (0.4164 1.0680 0.0500)
        (0.4214 1.0644 0.0500)
        (0.4264 1.0609 0.0500)
        (0.4314 1.0573 0.0500)
        (0.4365 1.0538 0.0500)
        (0.4415 1.0502 0.0500)
        (0.4465 1.0467 0.0500)
        (0.4515 1.0431 0.0500)
        (0.4565 1.0396 0.0500)
        (0.4615 1.0361 0.0500)
        (0.4666 1.0326 0.0500)
        (0.4716 1.0291 0.0500)
        (0.4766 1.0256 0.0500)
        (0.4816 1.0221 0.0500)
        (0.4866 1.0186 0.0500)
        (0.4916 1.0151 0.0500)
        (0.4967 1.0116 0.0500)
        (0.5017 1.0081 0.0500)
        (0.5067 1.0046 0.0500)
        (0.5117 1.0011 0.0500)
        (0.5167 0.9977 0.0500)
        (0.5217 0.9942 0.0500)
        (0.5268 0.9908 0.0500)
        (0.5318 0.9873 0.0500)
        (0.5368 0.9839 0.0500)
        (0.5418 0.9804 0.0500)
        (0.5468 0.9770 0.0500)
        (0.5518 0.9736 0.0500)
        (0.5569 0.9702 0.0500)
        (0.5619 0.9668 0.0500)
        (0.5669 0.9633 0.0500)
        (0.5719 0.9599 0.0500)
        (0.5769 0.9566 0.0500)
        (0.5819 0.9532 0.0500)
        (0.5870 0.9498 0.0500)
        (0.5920 0.9464 0.0500)
        (0.5970 0.9430 0.0500)
        (0.6020 0.9397 0.0500)
        (0.6070 0.9363 0.0500)
        (0.6120 0.9330 0.0500)
        (0.6171 0.9296 0.0500)
        (0.6221 0.9263 0.0500)
        (0.6271 0.9230 0.0500)
        (0.6321 0.9197 0.0500)
        (0.6371 0.9164 0.0500)
        (0.6421 0.9131 0.0500)
        (0.6472 0.9098 0.0500)
        (0.6522 0.9065 0.0500)
        (0.6572 0.9032 0.0500)
        (0.6622 0.8999 0.0500)
        (0.6672 0.8966 0.0500)
        (0.6722 0.8934 0.0500)
        (0.6773 0.8901 0.0500)
        (0.6823 0.8869 0.0500)
        (0.6873 0.8837 0.0500)
        (0.6923 0.8804 0.0500)
        (0.6973 0.8772 0.0500)
        (0.7023 0.8740 0.0500)
        (0.7074 0.8708 0.0500)
        (0.7124 0.8676 0.0500)
        (0.7174 0.8644 0.0500)
        (0.7224 0.8612 0.0500)
        (0.7274 0.8581 0.0500)
        (0.7324 0.8549 0.0500)
        (0.7375 0.8518 0.0500)
        (0.7425 0.8486 0.0500)
        (0.7475 0.8455 0.0500)
        (0.7525 0.8424 0.0500)
        (0.7575 0.8393 0.0500)
        (0.7625 0.8362 0.0500)
        (0.7676 0.8331 0.0500)
        (0.7726 0.8300 0.0500)
        (0.7776 0.8269 0.0500)
        (0.7826 0.8238 0.0500)
        (0.7876 0.8208 0.0500)
        (0.7926 0.8177 0.0500)
        (0.7977 0.8147 0.0500)
        (0.8027 0.8117 0.0500)
        (0.8077 0.8087 0.0500)
        (0.8127 0.8057 0.0500)
        (0.8177 0.8027 0.0500)
        (0.8227 0.7997 0.0500)
        (0.8278 0.7967 0.0500)
        (0.8328 0.7938 0.0500)
        (0.8378 0.7908 0.0500)
        (0.8428 0.7879 0.0500)
        (0.8478 0.7850 0.0500)
        (0.8528 0.7820 0.0500)
        (0.8579 0.7791 0.0500)
        (0.8629 0.7763 0.0500)
        (0.8679 0.7734 0.0500)
        (0.8729 0.7705 0.0500)
        (0.8779 0.7677 0.0500)
        (0.8829 0.7648 0.0500)
        (0.8880 0.7620 0.0500)
        (0.8930 0.7592 0.0500)
        (0.8980 0.7564 0.0500)
        (0.9030 0.7536 0.0500)
        (0.9080 0.7508 0.0500)
        (0.9130 0.7480 0.0500)
        (0.9181 0.7453 0.0500)
        (0.9231 0.7426 0.0500)
        (0.9281 0.7398 0.0500)
        (0.9331 0.7371 0.0500)
        (0.9381 0.7344 0.0500)
        (0.9431 0.7318 0.0500)
        (0.9482 0.7291 0.0500)
        (0.9532 0.7264 0.0500)
        (0.9582 0.7238 0.0500)
        (0.9632 0.7212 0.0500)
        (0.9682 0.7186 0.0500)
        (0.9732 0.7160 0.0500)
        (0.9783 0.7134 0.0500)
        (0.9833 0.7108 0.0500)
        (0.9883 0.7083 0.0500)
        (0.9933 0.7058 0.0500)
        (0.9983 0.7032 0.0500)
        (1.0033 0.7007 0.0500)
        (1.0084 0.6983 0.0500)
        (1.0134 0.6958 0.0500)
        (1.0184 0.6934 0.0500)
        (1.0234 0.6909 0.0500)
        (1.0284 0.6885 0.0500)
        (1.0334 0.6861 0.0500)
        (1.0385 0.6837 0.0500)
        (1.0435 0.6814 0.0500)
        (1.0485 0.6790 0.0500)
        (1.0535 0.6767 0.0500)
        (1.0585 0.6744 0.0500)
        (1.0635 0.6721 0.0500)
        (1.0686 0.6698 0.0500)
        (1.0736 0.6676 0.0500)
        (1.0786 0.6653 0.0500)
        (1.0836 0.6631 0.0500)
        (1.0886 0.6609 0.0500)
        (1.0936 0.6587 0.0500)
        (1.0987 0.6566 0.0500)
        (1.1037 0.6544 0.0500)
        (1.1087 0.6523 0.0500)
        (1.1137 0.6502 0.0500)
        (1.1187 0.6482 0.0500)
        (1.1237 0.6461 0.0500)
        (1.1288 0.6441 0.0500)
        (1.1338 0.6421 0.0500)
        (1.1388 0.6401 0.0500)
        (1.1438 0.6381 0.0500)
        (1.1488 0.6361 0.0500)
        (1.1538 0.6342 0.0500)
        (1.1589 0.6323 0.0500)
        (1.1639 0.6304 0.0500)
        (1.1689 0.6286 0.0500)
        (1.1739 0.6267 0.0500)
        (1.1789 0.6249 0.0500)
        (1.1839 0.6231 0.0500)
        (1.1890 0.6213 0.0500)
        (1.1940 0.6196 0.0500)
        (1.1990 0.6179 0.0500)
        (1.2040 0.6162 0.0500)
        (1.2090 0.6145 0.0500)
        (1.2140 0.6128 0.0500)
        (1.2191 0.6112 0.0500)
        (1.2241 0.6096 0.0500)
        (1.2291 0.6080 0.0500)
        (1.2341 0.6065 0.0500)
        (1.2391 0.6050 0.0500)
        (1.2441 0.6034 0.0500)
        (1.2492 0.6020 0.0500)
        (1.2542 0.6005 0.0500)
        (1.2592 0.5991 0.0500)
        (1.2642 0.5977 0.0500)
        (1.2692 0.5963 0.0500)
        (1.2742 0.5950 0.0500)
        (1.2793 0.5937 0.0500)
        (1.2843 0.5924 0.0500)
        (1.2893 0.5911 0.0500)
        (1.2943 0.5899 0.0500)
        (1.2993 0.5887 0.0500)
        (1.3043 0.5875 0.0500)
        (1.3094 0.5863 0.0500)
        (1.3144 0.5852 0.0500)
        (1.3194 0.5841 0.0500)
        (1.3244 0.5830 0.0500)
        (1.3294 0.5820 0.0500)
        (1.3344 0.5809 0.0500)
        (1.3395 0.5800 0.0500)
        (1.3445 0.5790 0.0500)
        (1.3495 0.5781 0.0500)
        (1.3545 0.5772 0.0500)
        (1.3595 0.5763 0.0500)
        (1.3645 0.5755 0.0500)
        (1.3696 0.5747 0.0500)
        (1.3746 0.5739 0.0500)
        (1.3796 0.5731 0.0500)
        (1.3846 0.5724 0.0500)
        (1.3896 0.5717 0.0500)
        (1.3946 0.5710 0.0500)
        (1.3997 0.5704 0.0500)
        (1.4047 0.5698 0.0500)
        (1.4097 0.5692 0.0500)
        (1.4147 0.5687 0.0500)
        (1.4197 0.5682 0.0500)
        (1.4247 0.5677 0.0500)
        (1.4298 0.5672 0.0500)
        (1.4348 0.5668 0.0500)
        (1.4398 0.5664 0.0500)
        (1.4448 0.5661 0.0500)
        (1.4498 0.5657 0.0500)
        (1.4548 0.5655 0.0500)
        (1.4599 0.5652 0.0500)
        (1.4649 0.5650 0.0500)
        (1.4699 0.5648 0.0500)
        (1.4749 0.5646 0.0500)
        (1.4799 0.5644 0.0500)
        (1.4849 0.5643 0.0500)
        (1.4900 0.5643 0.0500)
        (1.4950 0.5642 0.0500)
        (1.5000 0.5642 0.0500)
    )
    spline 9 11
    (
        (1.5038 0.5642 0.0500)
        (1.5075 0.5642 0.0500)
        (1.5113 0.5643 0.0500)
        (1.5151 0.5643 0.0500)
        (1.5188 0.5644 0.0500)
        (1.5226 0.5645 0.0500)
        (1.5264 0.5646 0.0500)
        (1.5302 0.5648 0.0500)
        (1.5339 0.5649 0.0500)
        (1.5377 0.5651 0.0500)
        (1.5415 0.5653 0.0500)
        (1.5452 0.5655 0.0500)
        (1.5490 0.5657 0.0500)
        (1.5528 0.5659 0.0500)
        (1.5565 0.5662 0.0500)
        (1.5603 0.5664 0.0500)
        (1.5641 0.5667 0.0500)
        (1.5678 0.5670 0.0500)
        (1.5716 0.5674 0.0500)
        (1.5754 0.5677 0.0500)
        (1.5791 0.5681 0.0500)
        (1.5829 0.5684 0.0500)
        (1.5867 0.5688 0.0500)
        (1.5905 0.5692 0.0500)
        (1.5942 0.5697 0.0500)
        (1.5980 0.5701 0.0500)
        (1.6018 0.5706 0.0500)
        (1.6055 0.5711 0.0500)
        (1.6093 0.5716 0.0500)
        (1.6131 0.5721 0.0500)
        (1.6168 0.5726 0.0500)
        (1.6206 0.5731 0.0500)
        (1.6244 0.5737 0.0500)
        (1.6281 0.5743 0.0500)
        (1.6319 0.5749 0.0500)
        (1.6357 0.5755 0.0500)
        (1.6394 0.5761 0.0500)
        (1.6432 0.5768 0.0500)
        (1.6470 0.5774 0.0500)
        (1.6508 0.5781 0.0500)
        (1.6545 0.5788 0.0500)
        (1.6583 0.5795 0.0500)
        (1.6621 0.5803 0.0500)
        (1.6658 0.5810 0.0500)
        (1.6696 0.5818 0.0500)
        (1.6734 0.5825 0.0500)
        (1.6771 0.5833 0.0500)
        (1.6809 0.5841 0.0500)
        (1.6847 0.5850 0.0500)
        (1.6884 0.5858 0.0500)
        (1.6922 0.5867 0.0500)
        (1.6960 0.5875 0.0500)
        (1.6997 0.5884 0.0500)
        (1.7035 0.5893 0.0500)
        (1.7073 0.5903 0.0500)
        (1.7111 0.5912 0.0500)
        (1.7148 0.5921 0.0500)
        (1.7186 0.5931 0.0500)
        (1.7224 0.5941 0.0500)
        (1.7261 0.5951 0.0500)
        (1.7299 0.5961 0.0500)
        (1.7337 0.5971 0.0500)
        (1.7374 0.5982 0.0500)
        (1.7412 0.5992 0.0500)
        (1.7450 0.6003 0.0500)
        (1.7487 0.6014 0.0500)
        (1.7525 0.6025 0.0500)
        (1.7563 0.6036 0.0500)
        (1.7601 0.6047 0.0500)
        (1.7638 0.6058 0.0500)
        (1.7676 0.6070 0.0500)
        (1.7714 0.6082 0.0500)
        (1.7751 0.6094 0.0500)
        (1.7789 0.6106 0.0500)
        (1.7827 0.6118 0.0500)
        (1.7864 0.6130 0.0500)
        (1.7902 0.6142 0.0500)
        (1.7940 0.6155 0.0500)
        (1.7977 0.6168 0.0500)
        (1.8015 0.6180 0.0500)
        (1.8053 0.6193 0.0500)
        (1.8090 0.6206 0.0500)
        (1.8128 0.6220 0.0500)
        (1.8166 0.6233 0.0500)
        (1.8204 0.6246 0.0500)
        (1.8241 0.6260 0.0500)
        (1.8279 0.6274 0.0500)
        (1.8317 0.6288 0.0500)
        (1.8354 0.6302 0.0500)
        (1.8392 0.6316 0.0500)
        (1.8430 0.6330 0.0500)
        (1.8467 0.6344 0.0500)
        (1.8505 0.6359 0.0500)
        (1.8543 0.6373 0.0500)
        (1.8580 0.6388 0.0500)
        (1.8618 0.6403 0.0500)
        (1.8656 0.6418 0.0500)
        (1.8693 0.6433 0.0500)
        (1.8731 0.6448 0.0500)
        (1.8769 0.6464 0.0500)
        (1.8807 0.6479 0.0500)
        (1.8844 0.6495 0.0500)
        (1.8882 0.6510 0.0500)
        (1.8920 0.6526 0.0500)
        (1.8957 0.6542 0.0500)
        (1.8995 0.6558 0.0500)
        (1.9033 0.6574 0.0500)
        (1.9070 0.6590 0.0500)
        (1.9108 0.6607 0.0500)
        (1.9146 0.6623 0.0500)
        (1.9183 0.6640 0.0500)
        (1.9221 0.6656 0.0500)
        (1.9259 0.6673 0.0500)
        (1.9296 0.6690 0.0500)
        (1.9334 0.6707 0.0500)
        (1.9372 0.6724 0.0500)
        (1.9410 0.6741 0.0500)
        (1.9447 0.6759 0.0500)
        (1.9485 0.6776 0.0500)
        (1.9523 0.6794 0.0500)
        (1.9560 0.6811 0.0500)
        (1.9598 0.6829 0.0500)
        (1.9636 0.6847 0.0500)
        (1.9673 0.6865 0.0500)
        (1.9711 0.6883 0.0500)
        (1.9749 0.6901 0.0500)
        (1.9786 0.6919 0.0500)
        (1.9824 0.6937 0.0500)
        (1.9862 0.6956 0.0500)
        (1.9899 0.6974 0.0500)
        (1.9937 0.6993 0.0500)
        (1.9975 0.7012 0.0500)
        (2.0013 0.7030 0.0500)
        (2.0050 0.7049 0.0500)
        (2.0088 0.7068 0.0500)
        (2.0126 0.7087 0.0500)
        (2.0163 0.7106 0.0500)
        (2.0201 0.7126 0.0500)
        (2.0239 0.7145 0.0500)
        (2.0276 0.7164 0.0500)
        (2.0314 0.7184 0.0500)
        (2.0352 0.7203 0.0500)
        (2.0389 0.7223 0.0500)
        (2.0427 0.7243 0.0500)
        (2.0465 0.7263 0.0500)