FoamFile
{
    version     2.0;
    format      ascii;
    class       dictionary;
    object      blockMeshDict;
}

convertToMeters 1;

vertices
(
    (0.0000 0.0000 0.0000)
    (0.0000 1.3762 0.0000)
    (1.5000 0.0000 0.0000)
    (1.5000 0.5642 0.0000)
    (2.2500 0.0000 0.0000)
    (2.2500 0.8439 0.0000)
    (0.0000 0.0000 0.0500)
    (0.0000 1.3762 0.0500)
    (1.5000 0.0000 0.0500)
    (1.5000 0.5642 0.0500)
    (2.2500 0.0000 0.0500)
    (2.2500 0.8439 0.0500)
);

blocks
(
    hex (0 2 3 1 6 8 9 7) (300 100 1) simpleGrading (0.5 0.5 1)
    hex (2 4 5 3 8 10 11 9) (200 100 1) simpleGrading (1 0.5 1)
);

edges
(
    spline 1 3
    (
        (0.0000 1.3762 0.0000)
        (0.0045 1.3728 0.0000)
        (0.0090 1.3693 0.0000)
        (0.0135 1.3659 0.0000)
        (0.0180 1.3625 0.0000)
        (0.0225 1.3590 0.0000)
        (0.0271 1.3556 0.0000)
        (0.0316 1.3522 0.0000)
        (0.0361 1.3487 0.0000)
        (0.0406 1.3453 0.0000)
        (0.0451 1.3419 0.0000)
        (0.0496 1.3385 0.0000)
        (0.0541 1.3350 0.0000)
        (0.0586 1.3316 0.0000)
        (0.0631 1.3282 0.0000)
        (0.0676 1.3248 0.0000)
        (0.0721 1.3214 0.0000)
        (0.0767 1.3180 0.0000)
        (0.0812 1.3146 0.0000)
        (0.0857 1.3111 0.0000)
        (0.0902 1.3077 0.0000)
        (0.0947 1.3043 0.0000)
        (0.0992 1.3009 0.0000)
        (0.1037 1.2975 0.0000)
        (0.1082 1.2941 0.0000)
        (0.1127 1.2907 0.0000)
        (0.1172 1.2874 0.0000)
        (0.1217 1.2840 0.0000)
        (0.1263 1.2806 0.0000)
        (0.1308 1.2772 0.0000)
        (0.1353 1.2738 0.0000)
        (0.1398 1.2704 0.0000)
        (0.1443 1.2670 0.0000)
        (0.1488 1.2637 0.0000)
        (0.1533 1.2603 0.0000)
        (0.1578 1.2569 0.0000)
        (0.1623 1.2535 0.0000)
        (0.1668 1.2502 0.0000)
        (0.1713 1.2468 0.0000)
        (0.1759 1.2434 0.0000)
        (0.1804 1.2401 0.0000)
        (0.1849 1.2367 0.0000)
        (0.1894 1.2334 0.0000)
        (0.1939 1.2300 0.0000)
        (0.1984 1.2267 0.0000)
        (0.2029 1.2233 0.0000)
        (0.2074 1.2200 0.0000)
        (0.2119 1.2166 0.0000)
        (0.2164 1.2133 0.0000)
        (0.2209 1.2099 0.0000)
        (0.2255 1.2066 0.0000)
        (0.2300 1.2033 0.0000)
        (0.2345 1.1999 0.0000)
        (0.2390 1.1966 0.0000)
        (0.2435 1.1933 0.0000)
        (0.2480 1.1900 0.0000)
        (0.2525 1.1866 0.0000)
        (0.2570 1.1833 0.0000)
        (0.2615 1.1800 0.0000)
        (0.2660 1.1767 0.0000)
        (0.2705 1.1734 0.0000)
        (0.2751 1.1701 0.0000)
        (0.2796 1.1668 0.0000)
        (0.2841 1.1635 0.0000)
        (0.2886 1.1602 0.0000)
        (0.2931 1.1569 0.0000)
        (0.2976 1.1536 0.0000)
        (0.3021 1.1503 0.0000)
        (0.3066 1.1470 0.0000)
        (0.3111 1.1437 0.0000)
        (0.3156 1.1404 0.0000)
        (0.3201 1.1372 0.0000)
        (0.3246 1.1339 0.0000)
        (0.3292 1.1306 0.0000)
        (0.3337 1.1274 0.0000)
        (0.3382 1.1241 0.0000)
        (0.3427 1.1208 0.0000)
        (0.3472 1.1176 0.0000)
        (0.3517 1.1143 0.0000)
        (0.3562 1.1111 0.0000)
        (0.3607 1.1078 0.0000)
        (0.3652 1.1046 0.0000)
        (0.3697 1.1013 0.0000)
        (0.3742 1.0981 0.0000)
        (0.3788 1.0948 0.0000)
        (0.3833 1.0916 0.0000)
        (0.3878 1.0884 0.0000)
        (0.3923 1.0852 0.0000)
        (0.3968 1.0819 0.0000)
        (0.4013 1.0787 0.0000)
        (0.4058 1.0755 0.0000)
        (0.4103 1.0723 0.0000)
        (0.4148 1.0691 0.0000)
        (0.4193 1.0659 0.0000)
        (0.4238 1.0627 0.0000)
        (0.4284 1.0595 0.0000)
        (0.4329 1.0563 0.0000)
        (0.4374 1.0531 0.0000)
        (0.4419 1.0499 0.0000)
        (0.4464 1.0467 0.0000)
        (0.4509 1.0436 0.0000)
        (0.4554 1.0404 0.0000)
        (0.4599 1.0372 0.0000)
        (0.4644 1.0341 0.0000)
        (0.4689 1.0309 0.0000)
        (0.4734 1.0278 0.0000)
        (0.4780 1.0246 0.0000)
        (0.4825 1.0215 0.0000)
        (0.4870 1.0183 0.0000)
        (0.4915 1.0152 0.0000)
        (0.4960 1.0120 0.0000)
        (0.5005 1.0089 0.0000)
        (0.5050 1.0058 0.0000)
        (0.5095 1.0027 0.0000)
        (0.5140 0.9995 0.0000)
        (0.5185 0.9964 0.0000)
        (0.5230 0.9933 0.0000)
        (0.5276 0.9902 0.0000)
        (0.5321 0.9871 0.0000)
        (0.5366 0.9840 0.0000)
        (0.5411 0.9809 0.0000)
        (0.5456 0.9779 0.0000)
        (0.5501 0.9748 0.0000)
        (0.5546 0.9717 0.0000)
        (0.5591 0.9686 0.0000)
        (0.5636 0.9656 0.0000)
        (0.5681 0.9625 0.0000)
        (0.5726 0.9594 0.0000)
        (0.5772 0.9564 0.0000)
        (0.5817 0.9534 0.0000)
        (0.5862 0.9503 0.0000)
        (0.5907 0.9473 0.0000)
        (0.5952 0.9443 0.0000)
        (0.5997 0.9412 0.0000)
        (0.6042 0.9382 0.0000)
        (0.6087 0.9352 0.0000)
        (0.6132 0.9322 0.0000)
        (0.6177 0.9292 0.0000)
        (0.6222 0.9262 0.0000)
        (0.6268 0.9232 0.0000)
        (0.6313 0.9202 0.0000)
        (0.6358 0.9172 0.0000)
        (0.6403 0.9143 0.0000)
        (0.6448 0.9113 0.0000)
        (0.6493 0.9083 0.0000)
        (0.6538 0.9054 0.0000)
        (0.6583 0.9024 0.0000)
        (0.6628 0.8995 0.0000)
        (0.6673 0.8966 0.0000)
        (0.6718 0.8936 0.0000)
        (0.6764 0.8907 0.0000)
        (0.6809 0.8878 0.0000)
        (0.6854 0.8849 0.0000)
        (0.6899 0.8820 0.0000)
        (0.6944 0.8791 0.0000)
        (0.6989 0.8762 0.0000)
        (0.7034 0.8733 0.0000)
        (0.7079 0.8704 0.0000)
        (0.7124 0.8676 0.0000)
        (0.7169 0.8647 0.0000)
        (0.7214 0.8619 0.0000)
        (0.7260 0.8590 0.0000)
        (0.7305 0.8562 0.0000)
        (0.7350 0.8533 0.0000)
        (0.7395 0.8505 0.0000)
        (0.7440 0.8477 0.0000)
        (0.7485 0.8449 0.0000)
        (0.7530 0.8421 0.0000)
        (0.7575 0.8393 0.0000)
        (0.7620 0.8365 0.0000)
        (0.7665 0.8337 0.0000)
        (0.7710 0.8309 0.0000)
        (0.7756 0.8282 0.0000)
        (0.7801 0.8254 0.0000)
        (0.7846 0.8226 0.0000)
        (0.7891 0.8199 0.0000)
        (0.7936 0.8172 0.0000)
        (0.7981 0.8144 0.0000)
        (0.8026 0.8117 0.0000)
        (0.8071 0.8090 0.0000)
        (0.8116 0.8063 0.0000)
        (0.8161 0.8036 0.0000)
        (0.8206 0.8009 0.0000)
        (0.8252 0.7983 0.0000)
        (0.8297 0.7956 0.0000)
        (0.8342 0.7929 0.0000)
        (0.8387 0.7903 0.0000)
        (0.8432 0.7877 0.0000)
        (0.8477 0.7850 0.0000)
        (0.8522 0.7824 0.0000)
        (0.8567 0.7798 0.0000)
        (0.8612 0.7772 0.0000)
        (0.8657 0.7746 0.0000)
        (0.8702 0.7720 0.0000)
        (0.8747 0.7695 0.0000)
        (0.8793 0.7669 0.0000)
        (0.8838 0.7644 0.0000)
        (0.8883 0.7618 0.0000)
        (0.8928 0.7593 0.0000)
        (0.8973 0.7568 0.0000)
        (0.9018 0.7543 0.0000)
        (0.9063 0.7518 0.0000)
        (0.9108 0.7493 0.0000)
        (0.9153 0.7468 0.0000)
        (0.9198 0.7443 0.0000)
        (0.9243 0.7419 0.0000)
        (0.9289 0.7394 0.0000)
        (0.9334 0.7370 0.0000)
        (0.9379 0.7346 0.0000)
        (0.9424 0.7322 0.0000)
        (0.9469 0.7298 0.0000)
        (0.9514 0.7274 0.0000)
        (0.9559 0.7250 0.0000)
        (0.9604 0.7226 0.0000)
        (0.9649 0.7203 0.0000)
        (0.9694 0.7179 0.0000)
        (0.9739 0.7156 0.0000)
        (0.9785 0.7133 0.0000)
        (0.9830 0.7110 0.0000)
        (0.9875 0.7087 0.0000)
        (0.9920 0.7064 0.0000)
        (0.9965 0.7042 0.0000)
        (1.0010 0.7019 0.0000)
        (1.0055 0.6997 0.0000)
        (1.0100 0.6974 0.0000)
        (1.0145 0.6952 0.0000)
        (1.0190 0.6930 0.0000)
        (1.0235 0.6909 0.0000)
        (1.0281 0.6887 0.0000)
        (1.0326 0.6865 0.0000)
        (1.0371 0.6844 0.0000)
        (1.0416 0.6823 0.0000)
        (1.0461 0.6801 0.0000)
        (1.0506 0.6780 0.0000)
        (1.0551 0.6760 0.0000)
        (1.0596 0.6739 0.0000)
        (1.0641 0.6718 0.0000)
        (1.0686 0.6698 0.0000)
        (1.0731 0.6678 0.0000)
        (1.0777 0.6657 0.0000)
        (1.0822 0.6638 0.0000)
        (1.0867 0.6618 0.0000)
        (1.0912 0.6598 0.0000)
        (1.0957 0.6579 0.0000)
        (1.1002 0.6559 0.0000)
        (1.1047 0.6540 0.0000)
        (1.1092 0.6521 0.0000)
        (1.1137 0.6502 0.0000)
        (1.1182 0.6484 0.0000)
        (1.1227 0.6465 0.0000)
        (1.1273 0.6447 0.0000)
        (1.1318 0.6429 0.0000)
        (1.1363 0.6411 0.0000)
        (1.1408 0.6393 0.0000)
        (1.1453 0.6375 0.0000)
        (1.1498 0.6358 0.0000)
        (1.1543 0.6340 0.0000)
        (1.1588 0.6323 0.0000)
        (1.1633 0.6306 0.0000)
        (1.1678 0.6289 0.0000)
        (1.1723 0.6273 0.0000)
        (1.1769 0.6256 0.0000)
        (1.1814 0.6240 0.0000)
        (1.1859 0.6224 0.0000)
        (1.1904 0.6208 0.0000)
        (1.1949 0.6193 0.0000)
        (1.1994 0.6177 0.0000)
        (1.2039 0.6162 0.0000)
        (1.2084 0.6147 0.0000)
        (1.2129 0.6132 0.0000)
        (1.2174 0.6117 0.0000)
        (1.2219 0.6103 0.0000)
        (1.2265 0.6089 0.0000)
        (1.2310 0.6075 0.0000)
        (1.2355 0.6061 0.0000)
        (1.2400 0.6047 0.0000)
        (1.2445 0.6033 0.0000)
        (1.2490 0.6020 0.0000)
        (1.2535 0.6007 0.0000)
        (1.2580 0.5994 0.0000)
        (1.2625 0.5982 0.0000)
        (1.2670 0.5969 0.0000)
        (1.2715 0.5957 0.0000)
        (1.2761 0.5945 0.0000)
        (1.2806 0.5933 0.0000)
        (1.2851 0.5922 0.0000)
        (1.2896 0.5910 0.0000)
        (1.2941 0.5899 0.0000)
        (1.2986 0.5888 0.0000)
        (1.3031 0.5878 0.0000)
        (1.3076 0.5867 0.0000)
        (1.3121 0.5857 0.0000)
        (1.3166 0.5847 0.0000)
        (1.3211 0.5837 0.0000)
        (1.3257 0.5827 0.0000)
        (1.3302 0.5818 0.0000)
        (1.3347 0.5809 0.0000)
        (1.3392 0.5800 0.0000)
        (1.3437 0.5792 0.0000)
        (1.3482 0.5783 0.0000)
        (1.3527 0.5775 0.0000)
        (1.3572 0.5767 0.0000)
        (1.3617 0.5759 0.0000)
        (1.3662 0.5752 0.0000)
        (1.3707 0.5745 0.0000)
        (1.3753 0.5738 0.0000)
        (1.3798 0.5731 0.0000)
        (1.3843 0.5724 0.0000)
        (1.3888 0.5718 0.0000)
        (1.3933 0.5712 0.0000)
        (1.3978 0.5706 0.0000)
        (1.4023 0.5701 0.0000)
        (1.4068 0.5696 0.0000)
        (1.4113 0.5690 0.0000)
        (1.4158 0.5686 0.0000)
        (1.4203 0.5681 0.0000)
        (1.4248 0.5677 0.0000)
        (1.4294 0.5673 0.0000)
        (1.4339 0.5669 0.0000)
        (1.4384 0.5665 0.0000)
        (1.4429 0.5662 0.0000)
        (1.4474 0.5659 0.0000)
        (1.4519 0.5656 0.0000)
        (1.4564 0.5654 0.0000)
        (1.4609 0.5651 0.0000)
        (1.4654 0.5649 0.0000)
        (1.4699 0.5648 0.0000)
        (1.4744 0.5646 0.0000)
        (1.4790 0.5645 0.0000)
        (1.4835 0.5644 0.0000)
        (1.4880 0.5643 0.0000)
        (1.4925 0.5642 0.0000)
        (1.4970 0.5642 0.0000)
        (1.5015 0.5642 0.0000)
    )
    spline 3 5
    (
        (1.5060 0.5642 0.0000)
        (1.5105 0.5643 0.0000)
        (1.5150 0.5643 0.0000)
        (1.5195 0.5644 0.0000)
        (1.5240 0.5645 0.0000)
        (1.5286 0.5647 0.0000)
        (1.5331 0.5649 0.0000)
        (1.5376 0.5651 0.0000)
        (1.5421 0.5653 0.0000)
        (1.5466 0.5655 0.0000)
        (1.5511 0.5658 0.0000)
        (1.5556 0.5661 0.0000)
        (1.5601 0.5664 0.0000)
        (1.5646 0.5668 0.0000)
        (1.5691 0.5671 0.0000)
        (1.5736 0.5675 0.0000)
        (1.5782 0.5680 0.0000)
        (1.5827 0.5684 0.0000)
        (1.5872 0.5689 0.0000)
        (1.5917 0.5694 0.0000)
        (1.5962 0.5699 0.0000)
        (1.6007 0.5704 0.0000)
        (1.6052 0.5710 0.0000)
        (1.6097 0.5716 0.0000)
        (1.6142 0.5722 0.0000)
        (1.6187 0.5729 0.0000)
        (1.6232 0.5735 0.0000)
        (1.6278 0.5742 0.0000)
        (1.6323 0.5749 0.0000)
        (1.6368 0.5757 0.0000)
        (1.6413 0.5764 0.0000)
        (1.6458 0.5772 0.0000)
        (1.6503 0.5780 0.0000)
        (1.6548 0.5789 0.0000)
        (1.6593 0.5797 0.0000)
        (1.6638 0.5806 0.0000)
        (1.6683 0.5815 0.0000)
        (1.6728 0.5824 0.0000)
        (1.6774 0.5834 0.0000)
        (1.6819 0.5844 0.0000)
        (1.6864 0.5853 0.0000)
        (1.6909 0.5864 0.0000)
        (1.6954 0.5874 0.0000)
        (1.6999 0.5885 0.0000)
        (1.7044 0.5896 0.0000)
        (1.7089 0.5907 0.0000)
        (1.7134 0.5918 0.0000)
        (1.7179 0.5929 0.0000)
        (1.7224 0.5941 0.0000)
        (1.7270 0.5953 0.0000)
        (1.7315 0.5965 0.0000)
        (1.7360 0.5977 0.0000)
        (1.7405 0.5990 0.0000)
        (1.7450 0.6003 0.0000)
        (1.7495 0.6016 0.0000)
        (1.7540 0.6029 0.0000)
        (1.7585 0.6042 0.0000)
        (1.7630 0.6056 0.0000)
        (1.7675 0.6070 0.0000)
        (1.7720 0.6084 0.0000)
        (1.7766 0.6098 0.0000)
        (1.7811 0.6113 0.0000)
        (1.7856 0.6127 0.0000)
        (1.7901 0.6142 0.0000)
        (1.7946 0.6157 0.0000)
        (1.7991 0.6172 0.0000)
        (1.8036 0.6188 0.0000)
        (1.8081 0.6203 0.0000)
        (1.8126 0.6219 0.0000)
        (1.8171 0.6235 0.0000)
        (1.8216 0.6251 0.0000)
        (1.8262 0.6267 0.0000)
        (1.8307 0.6284 0.0000)
        (1.8352 0.6301 0.0000)
        (1.8397 0.6318 0.0000)
        (1.8442 0.6335 0.0000)
        (1.8487 0.6352 0.0000)
        (1.8532 0.6369 0.0000)
        (1.8577 0.6387 0.0000)
        (1.8622 0.6405 0.0000)
        (1.8667 0.6423 0.0000)
        (1.8712 0.6441 0.0000)
        (1.8758 0.6459 0.0000)
        (1.8803 0.6477 0.0000)
        (1.8848 0.6496 0.0000)
        (1.8893 0.6515 0.0000)
        (1.8938 0.6534 0.0000)
        (1.8983 0.6553 0.0000)
        (1.9028 0.6572 0.0000)
        (1.9073 0.6592 0.0000)
        (1.9118 0.6611 0.0000)
        (1.9163 0.6631 0.0000)
        (1.9208 0.6651 0.0000)
        (1.9254 0.6671 0.0000)
        (1.9299 0.6691 0.0000)
        (1.9344 0.6711 0.0000)
        (1.9389 0.6732 0.0000)
        (1.9434 0.6753 0.0000)
        (1.9479 0.6773 0.0000)
        (1.9524 0.6794 0.0000)
        (1.9569 0.6815 0.0000)
        (1.9614 0.6837 0.0000)
        (1.9659 0.6858 0.0000)
        (1.9704 0.6880 0.0000)
        (1.9749 0.6901 0.0000)
        (1.9795 0.6923 0.0000)
        (1.9840 0.6945 0.0000)
        (1.9885 0.6967 0.0000)
        (1.9930 0.6989 0.0000)
        (1.9975 0.7012 0.0000)
        (2.0020 0.7034 0.0000)
        (2.0065 0.7057 0.0000)
        (2.0110 0.7079 0.0000)
        (2.0155 0.7102 0.0000)
        (2.0200 0.7125 0.0000)
        (2.0245 0.7148 0.0000)
        (2.0291 0.7172 0.0000)
        (2.0336 0.7195 0.0000)
        (2.0381 0.7218 0.0000)
        (2.0426 0.7242 0.0000)
        (2.0471 0.7266 0.0000)
        (2.0516 0.7290 0.0000)
        (2.0561 0.7314 0.0000)
        (2.0606 0.7338 0.0000)
        (2.0651 0.7362 0.0000)
        (2.0696 0.7386 0.0000)
        (2.0741 0.7411 0.0000)
        (2.0787 0.7435 0.0000)
        (2.0832 0.7460 0.0000)
        (2.0877 0.7484 0.0000)
        (2.0922 0.7509 0.0000)
        (2.0967 0.7534 0.0000)
        (2.1012 0.7559 0.0000)
        (2.1057 0.7584 0.0000)
        (2.1102 0.7610 0.0000)
        (2.1147 0.7635 0.0000)
        (2.1192 0.7661 0.0000)
        (2.1237 0.7686 0.0000)
        (2.1283 0.7712 0.0000)
        (2.1328 0.7738 0.0000)
        (2.1373 0.7763 0.0000)
        (2.1418 0.7789 0.0000)
        (2.1463 0.7815 0.0000)
        (2.1508 0.7842 0.0000)
        (2.1553 0.7868 0.0000)
        (2.1598 0.7894 0.0000)
        (2.1643 0.7921 0.0000)
        (2.1688 0.7947 0.0000)
        (2.1733 0.7974 0.0000)
        (2.1779 0.8001 0.0000)
        (2.1824 0.8027 0.0000)
        (2.1869 0.8054 0.0000)
        (2.1914 0.8081 0.0000)
        (2.1959 0.8108 0.0000)
        (2.2004 0.8135 0.0000)
        (2.2049 0.8163 0.0000)
        (2.2094 0.8190 0.0000)
        (2.2139 0.8217 0.0000)
        (2.2184 0.8245 0.0000)
        (2.2229 0.8272 0.0000)
        (2.2275 0.8300 0.0000)
        (2.2320 0.8328 0.0000)
        (2.2365 0.8355 0.0000)
        (2.2410 0.8383 0.0000)
        (2.2455 0.8411 0.0000)
        (2.2500 0.8439 0.0000)
    )
    spline 7 9
    (
        (0.0000 1.3762 0.0500)
        (0.0045 1.3728 0.0500)
        (0.0090 1.3693 0.0500)
        (0.0135 1.3659 0.0500)
        (0.0180 1.3625 0.0500)
        (0.0225 1.3590 0.0500)
        (0.0271 1.3556 0.0500)
        (0.0316 1.3522 0.0500)
        (0.0361 1.3487 0.0500)
        (0.0406 1.3453 0.0500)
        (0.0451 1.3419 0.0500)
        (0.0496 1.3385 0.0500)
        (0.0541 1.3350 0.0500)
        (0.0586 1.3316 0.0500)
        (0.0631 1.3282 0.0500)
        (0.0676 1.3248 0.0500)
        (0.0721 1.3214 0.0500)
        (0.0767 1.3180 0.0500)
        (0.0812 1.3146 0.0500)
        (0.0857 1.3111 0.0500)
        (0.0902 1.3077 0.0500)
        (0.0947 1.3043 0.0500)
        (0.0992 1.3009 0.0500)
        (0.1037 1.2975 0.0500)
        (0.1082 1.2941 0.0500)
        (0.1127 1.2907 0.0500)
        (0.1172 1.2874 0.0500)
        (0.1217 1.2840 0.0500)
        (0.1263 1.2806 0.0500)
        (0.1308 1.2772 0.0500)
        (0.1353 1.2738 0.0500)
        (0.1398 1.2704 0.0500)
        (0.1443 1.2670 0.0500)
        (0.1488 1.2637 0.0500)
        (0.1533 1.2603 0.0500)
        (0.1578 1.2569 0.0500)
        (0.1623 1.2535 0.0500)
        (0.1668 1.2502 0.0500)
        (0.1713 1.2468 0.0500)
        (0.1759 1.2434 0.0500)
        (0.1804 1.2401 0.0500)
        (0.1849 1.2367 0.0500)
        (0.1894 1.2334 0.0500)
        (0.1939 1.2300 0.0500)
        (0.1984 1.2267 0.0500)
        (0.2029 1.2233 0.0500)
        (0.2074 1.2200 0.0500)
        (0.2119 1.2166 0.0500)
        (0.2164 1.2133 0.0500)
        (0.2209 1.2099 0.0500)
        (0.2255 1.2066 0.0500)
        (0.2300 1.2033 0.0500)
        (0.2345 1.1999 0.0500)
        (0.2390 1.1966 0.0500)
        (0.2435 1.1933 0.0500)
        (0.2480 1.1900 0.0500)
        (0.2525 1.1866 0.0500)
        (0.2570 1.1833 0.0500)
        (0.2615 1.1800 0.0500)
        (0.2660 1.1767 0.0500)
        (0.2705 1.1734 0.0500)
        (0.2751 1.1701 0.0500)
        (0.2796 1.1668 0.0500)
        (0.2841 1.1635 0.0500)
        (0.2886 1.1602 0.0500)
        (0.2931 1.1569 0.0500)
        (0.2976 1.1536 0.0500)
        (0.3021 1.1503 0.0500)
        (0.3066 1.1470 0.0500)
        (0.3111 1.1437 0.0500)
        (0.3156 1.1404 0.0500)
        (0.3201 1.1372 0.0500)
        (0.3246 1.1339 0.0500)
        (0.3292 1.1306 0.0500)
        (0.3337 1.1274 0.0500)
        (0.3382 1.1241 0.0500)
        (0.3427 1.1208 0.0500)
        (0.3472 1.1176 0.0500)
        (0.3517 1.1143 0.0500)
        (0.3562 1.1111 0.0500)
        (0.3607 1.1078 0.0500)
        (0.3652 1.1046 0.0500)
        (0.3697 1.1013 0.0500)
        (0.3742 1.0981 0.0500)
        (0.3788 1.0948 0.0500)
        (0.3833 1.0916 0.0500)
        (0.3878 1.0884 0.0500)
        (0.3923 1.0852 0.0500)
        (0.3968 1.0819 0.0500)
        (0.4013 1.0787 0.0500)
        (0.4058 1.0755 0.0500)
        (0.4103 1.0723 0.0500)
        (0.4148 1.0691 0.0500)
        (0.4193 1.0659 0.0500)
        (0.4238 1.0627 0.0500)
        (0.4284 1.0595 0.0500)
        (0.4329 1.0563 0.0500)
        (0.4374 1.0531 0.0500)
        (0.4419 1.0499 0.0500)
        (0.4464 1.0467 0.0500)
        (0.4509 1.0436 0.0500)
        (0.4554 1.0404 0.0500)
        (0.4599 1.0372 0.0500)
        (0.4644 1.0341 0.0500)
        (0.4689 1.0309 0.0500)
        (0.4734 1.0278 0.0500)
        (0.4780 1.0246 0.0500)
        (0.4825 1.0215 0.0500)
        (0.4870 1.0183 0.0500)
        (0.4915 1.0152 0.0500)
        (0.4960 1.0120 0.0500)
        (0.5005 1.0089 0.0500)
        (0.5050 1.0058 0.0500)
        (0.5095 1.0027 0.0500)
        (0.5140 0.9995 0.0500)
        (0.5185 0.9964 0.0500)
        (0.5230 0.9933 0.0500)
        (0.5276 0.9902 0.0500)
        (0.5321 0.9871 0.0500)
        (0.5366 0.9840 0.0500)
        (0.5411 0.9809 0.0500)
        (0.5456 0.9779 0.0500)
        (0.5501 0.9748 0.0500)
        (0.5546 0.9717 0.0500)
        (0.5591 0.9686 0.0500)
        (0.5636 0.9656 0.0500)
        (0.5681 0.9625 0.0500)
        (0.5726 0.9594 0.0500)
        (0.5772 0.9564 0.0500)
        (0.5817 0.9534 0.0500)
        (0.5862 0.9503 0.0500)
        (0.5907 0.9473 0.0500)
        (0.5952 0.9443 0.0500)
        (0.5997 0.9412 0.0500)
        (0.6042 0.9382 0.0500)
        (0.6087 0.9352 0.0500)
        (0.6132 0.9322 0.0500)
        (0.6177 0.9292 0.0500)
        (0.6222 0.9262 0.0500)
        (0.6268 0.9232 0.0500)
        (0.6313 0.9202 0.0500)
        (0.6358 0.9172 0.0500)
        (0.6403 0.9143 0.0500)
        (0.6448 0.9113 0.0500)
        (0.6493 0.9083 0.0500)
        (0.6538 0.9054 0.0500)
        (0.6583 0.9024 0.0500)
        (0.6628 0.8995 0.0500)
        (0.6673 0.8966 0.0500)
        (0.6718 0.8936 0.0500)
        (0.6764 0.8907 0.0500)
        (0.6809 0.8878 0.0500)
        (0.6854 0.8849 0.0500)
        (0.6899 0.8820 0.0500)
        (0.6944 0.8791 0.0500)
        (0.6989 0.8762 0.0500)
        (0.7034 0.8733 0.0500)
        (0.7079 0.8704 0.0500)
        (0.7124 0.8676 0.0500)
        (0.7169 0.8647 0.0500)
        (0.7214 0.8619 0.0500)
        (0.7260 0.8590 0.0500)
        (0.7305 0.8562 0.0500)
        (0.7350 0.8533 0.0500)
        (0.7395 0.8505 0.0500)
        (0.7440 0.8477 0.0500)
        (0.7485 0.8449 0.0500)
        (0.7530 0.8421 0.0500)
        (0.7575 0.8393 0.0500)
        (0.7620 0.8365 0.0500)
        (0.7665 0.8337 0.0500)
        (0.7710 0.8309 0.0500)
        (0.7756 0.8282 0.0500)
        (0.7801 0.8254 0.0500)
        (0.7846 0.8226 0.0500)
        (0.7891 0.8199 0.0500)
        (0.7936 0.8172 0.0500)
        (0.7981 0.8144 0.0500)
        (0.8026 0.8117 0.0500)
        (0.8071 0.8090 0.0500)
        (0.8116 0.8063 0.0500)
        (0.8161 0.8036 0.0500)
        (0.8206 0.8009 0.0500)
        (0.8252 0.7983 0.0500)
        (0.8297 0.7956 0.0500)
        (0.8342 0.7929 0.0500)
        (0.8387 0.7903 0.0500)
        (0.8432 0.7877 0.0500)
        (0.8477 0.7850 0.0500)
        (0.8522 0.7824 0.0500)
        (0.8567 0.7798 0.0500)
        (0.8612 0.7772 0.0500)
        (0.8657 0.7746 0.0500)
        (0.8702 0.7720 0.0500)
        (0.8747 0.7695 0.0500)
        (0.8793 0.7669 0.0500)
        (0.8838 0.7644 0.0500)
        (0.8883 0.7618 0.0500)
        (0.8928 0.7593 0.0500)
        (0.8973 0.7568 0.0500)
        (0.9018 0.7543 0.0500)
        (0.9063 0.7518 0.0500)
        (0.9108 0.7493 0.0500)
        (0.9153 0.7468 0.0500)
        (0.9198 0.7443 0.0500)
        (0.9243 0.7419 0.0500)
        (0.9289 0.7394 0.0500)
        (0.9334 0.7370 0.0500)
        (0.9379 0.7346 0.0500)
        (0.9424 0.7322 0.0500)
        (0.9469 0.7298 0.0500)
        (0.9514 0.7274 0.0500)
        (0.9559 0.7250 0.0500)
        (0.9604 0.7226 0.0500)
        (0.9649 0.7203 0.0500)
        (0.9694 0.7179 0.0500)
        (0.9739 0.7156 0.0500)
        (0.9785 0.7133 0.0500)
        (0.9830 0.7110 0.0500)
        (0.9875 0.7087 0.0500)
        (0.9920 0.7064 0.0500)
        (0.9965 0.7042 0.0500)
        (1.0010 0.7019 0.0500)
        (1.0055 0.6997 0.0500)
        (1.0100 0.6974 0.0500)
        (1.0145 0.6952 0.0500)
        (1.0190 0.6930 0.0500)
        (1.0235 0.6909 0.0500)
        (1.0281 0.6887 0.0500)
        (1.0326 0.6865 0.0500)
        (1.0371 0.6844 0.0500)
        (1.0416 0.6823 0.0500)
        (1.0461 0.6801 0.0500)
        (1.0506 0.6780 0.0500)
        (1.0551 0.6760 0.0500)
        (1.0596 0.6739 0.0500)
        (1.0641 0.6718 0.0500)
        (1.0686 0.6698 0.0500)
        (1.0731 0.6678 0.0500)
        (1.0777 0.6657 0.0500)
        (1.0822 0.6638 0.0500)
        (1.0867 0.6618 0.0500)
        (1.0912 0.6598 0.0500)
        (1.0957 0.6579 0.0500)
        (1.1002 0.6559 0.0500)
        (1.1047 0.6540 0.0500)
        (1.1092 0.6521 0.0500)
        (1.1137 0.6502 0.0500)
        (1.1182 0.6484 0.0500)
        (1.1227 0.6465 0.0500)
        (1.1273 0.6447 0.0500)
        (1.1318 0.6429 0.0500)
        (1.1363 0.6411 0.0500)
        (1.1408 0.6393 0.0500)
        (1.1453 0.6375 0.0500)
        (1.1498 0.6358 0.0500)
        (1.1543 0.6340 0.0500)
        (1.1588 0.6323 0.0500)
        (1.1633 0.6306 0.0500)
        (1.1678 0.6289 0.0500)
        (1.1723 0.6273 0.0500)
        (1.1769 0.6256 0.0500)
        (1.1814 0.6240 0.0500)
        (1.1859 0.6224 0.0500)
        (1.1904 0.6208 0.0500)
        (1.1949 0.6193 0.0500)
        (1.1994 0.6177 0.0500)
        (1.2039 0.6162 0.0500)
        (1.2084 0.6147 0.0500)
        (1.2129 0.6132 0.0500)
        (1.2174 0.6117 0.0500)
        (1.2219 0.6103 0.0500)
        (1.2265 0.6089 0.0500)
        (1.2310 0.6075 0.0500)
        (1.2355 0.6061 0.0500)
        (1.2400 0.6047 0.0500)
        (1.2445 0.6033 0.0500)
        (1.2490 0.6020 0.0500)
        (1.2535 0.6007 0.0500)
        (1.2580 0.5994 0.0500)
        (1.2625 0.5982 0.0500)
        (1.2670 0.5969 0.0500)
        (1.2715 0.5957 0.0500)
        (1.2761 0.5945 0.0500)
        (1.2806 0.5933 0.0500)
        (1.2851 0.5922 0.0500)
        (1.2896 0.5910 0.0500)
        (1.2941 0.5899 0.0500)
        (1.2986 0.5888 0.0500)
        (1.3031 0.5878 0.0500)
        (1.3076 0.5867 0.0500)
        (1.3121 0.5857 0.0500)
        (1.3166 0.5847 0.0500)
        (1.3211 0.5837 0.0500)
        (1.3257 0.5827 0.0500)
        (1.3302 0.5818 0.0500)
        (1.3347 0.5809 0.0500)
        (1.3392 0.5800 0.0500)
        (1.3437 0.5792 0.0500)
        (1.3482 0.5783 0.0500)
        (1.3527 0.5775 0.0500)
        (1.3572 0.5767 0.0500)
        (1.3617 0.5759 0.0500)
        (1.3662 0.5752 0.0500)
        (1.3707 0.5745 0.0500)
        (1.3753 0.5738 0.0500)
        (1.3798 0.5731 0.0500)
        (1.3843 0.5724 0.0500)
        (1.3888 0.5718 0.0500)
        (1.3933 0.5712 0.0500)
        (1.3978 0.5706 0.0500)
        (1.4023 0.5701 0.0500)
        (1.4068 0.5696 0.0500)
        (1.4113 0.5690 0.0500)
        (1.4158 0.5686 0.0500)
        (1.4203 0.5681 0.0500)
        (1.4248 0.5677 0.0500)
        (1.4294 0.5673 0.0500)
        (1.4339 0.5669 0.0500)
        (1.4384 0.5665 0.0500)
        (1.4429 0.5662 0.0500)
        (1.4474 0.5659 0.0500)
        (1.4519 0.5656 0.0500)
        (1.4564 0.5654 0.0500)
        (1.4609 0.5651 0.0500)
        (1.4654 0.5649 0.0500)
        (1.4699 0.5648 0.0500)
        (1.4744 0.5646 0.0500)
        (1.4790 0.5645 0.0500)
        (1.4835 0.5644 0.0500)
        (1.4880 0.5643 0.0500)
        (1.4925 0.5642 0.0500)
        (1.4970 0.5642 0.0500)
        (1.5015 0.5642 0.0500)
    )
    spline 9 11
    (
        (1.5060 0.5642 0.0500)
        (1.5105 0.5643 0.0500)
        (1.5150 0.5643 0.0500)
        (1.5195 0.5644 0.0500)
        (1.5240 0.5645 0.0500)
        (1.5286 0.5647 0.0500)
        (1.5331 0.5649 0.0500)
        (1.5376 0.5651 0.0500)
        (1.5421 0.5653 0.0500)
        (1.5466 0.5655 0.0500)
        (1.5511 0.5658 0.0500)
        (1.5556 0.5661 0.0500)
        (1.5601 0.5664 0.0500)
        (1.5646 0.5668 0.0500)
        (1.5691 0.5671 0.0500)
        (1.5736 0.5675 0.0500)
        (1.5782 0.5680 0.0500)
        (1.5827 0.5684 0.0500)
        (1.5872 0.5689 0.0500)
        (1.5917 0.5694 0.0500)
        (1.5962 0.5699 0.0500)
        (1.6007 0.5704 0.0500)
        (1.6052 0.5710 0.0500)
        (1.6097 0.5716 0.0500)
        (1.6142 0.5722 0.0500)
        (1.6187 0.5729 0.0500)
        (1.6232 0.5735 0.0500)
        (1.6278 0.5742 0.0500)
        (1.6323 0.5749 0.0500)
        (1.6368 0.5757 0.0500)
        (1.6413 0.5764 0.0500)
        (1.6458 0.5772 0.0500)
        (1.6503 0.5780 0.0500)
        (1.6548 0.5789 0.0500)
        (1.6593 0.5797 0.0500)
        (1.6638 0.5806 0.0500)
        (1.6683 0.5815 0.0500)
        (1.6728 0.5824 0.0500)
        (1.6774 0.5834 0.0500)
        (1.6819 0.5844 0.0500)
        (1.6864 0.5853 0.0500)
        (1.6909 0.5864 0.0500)
        (1.6954 0.5874 0.0500)
        (1.6999 0.5885 0.0500)
        (1.7044 0.5896 0.0500)
        (1.7089 0.5907 0.0500)
        (1.7134 0.5918 0.0500)
        (1.7179 0.5929 0.0500)
        (1.7224 0.5941 0.0500)
        (1.7270 0.5953 0.0500)
        (1.7315 0.5965 0.0500)
        (1.7360 0.5977 0.0500)
        (1.7405 0.5990 0.0500)
        (1.7450 0.6003 0.0500)
        (1.7495 0.6016 0.0500)
        (1.7540 0.6029 0.0500)
        (1.7585 0.6042 0.0500)
        (1.7630 0.6056 0.0500)
        (1.7675 0.6070 0.0500)
        (1.7720 0.6084 0.0500)
        (1.7766 0.6098 0.0500)
        (1.7811 0.6113 0.0500)
        (1.7856 0.6127 0.0500)
        (1.7901 0.6142 0.0500)
        (1.7946 0.6157 0.0500)
        (1.7991 0.6172 0.0500)
        (1.8036 0.6188 0.0500)
        (1.8081 0.6203 0.0500)
        (1.8126 0.6219 0.0500)
        (1.8171 0.6235 0.0500)
        (1.8216 0.6251 0.0500)
        (1.8262 0.6267 0.0500)
        (1.8307 0.6284 0.0500)
        (1.8352 0.6301 0.0500)
        (1.8397 0.6318 0.0500)
        (1.8442 0.6335 0.0500)
        (1.8487 0.6352 0.0500)
        (1.8532 0.6369 0.0500)
        (1.8577 0.6387 0.0500)
        (1.8622 0.6405 0.0500)
        (1.8667 0.6423 0.0500)
        (1.8712 0.6441 0.0500)
        (1.8758 0.6459 0.0500)
        (1.8803 0.6477 0.0500)
        (1.8848 0.6496 0.0500)
        (1.8893 0.6515 0.0500)
        (1.8938 0.6534 0.0500)
        (1.8983 0.6553 0.0500)
        (1.9028 0.6572 0.0500)
        (1.9073 0.6592 0.0500)
        (1.9118 0.6611 0.0500)
        (1.9163 0.6631 0.0500)
        (1.9208 0.6651 0.0500)
        (1.9254 0.6671 0.0500)
        (1.9299 0.6691 0.0500)
        (1.9344 0.6711 0.0500)
        (1.9389 0.6732 0.0500)
        (1.9434 0.6753 0.0500)
        (1.9479 0.6773 0.0500)
        (1.9524 0.6794 0.0500)
        (1.9569 0.6815 0.0500)
        (1.9614 0.6837 0.0500)
        (1.9659 0.6858 0.0500)
        (1.9704 0.6880 0.0500)
        (1.9749 0.6901 0.0500)
        (1.9795 0.6923 0.0500)
        (1.9840 0.6945 0.0500)
        (1.9885 0.6967 0.0500)
        (1.9930 0.6989 0.0500)
        (1.9975 0.7012 0.0500)